data_image0
_chemical_formula_structural       H2O
_chemical_formula_sum              "H2 O1"
_cell_length_a       15.0
_cell_length_b       15.0
_cell_length_c       15.0
_cell_angle_alpha    90.0
_cell_angle_beta     90.0
_cell_angle_gamma    90.0

_space_group_name_H-M_alt    "P 1"
_space_group_IT_number       1

loop_
  _space_group_symop_operation_xyz
  'x, y, z'

loop_
  _atom_site_type_symbol
  _atom_site_label
  _atom_site_symmetry_multiplicity
  _atom_site_fract_x
  _atom_site_fract_y
  _atom_site_fract_z
  _atom_site_occupancy
  O   O1        1.0  0.5                 0.5                0.5  1.0000
  H   H1        1.0  0.5638666666666666  0.5                0.5  1.0000
  H   H2        1.0  0.4840630287387154  0.5618462938107701 0.5  1.0000

